Circuit: * Z:\home\maximilian\Etching\ltspice\uv_led_driver\driver_option3.asc

V2: Missing value, assumed 0V @ DC
Early termination of direct N-R iteration.
Direct Newton iteration failed to find .op point.  (Use ".option noopiter" to skip.)
Starting Gmin stepping
Gmin = 10
vernier = 0.5
vernier = 0.25
vernier = 0.125
vernier = 0.0625
Gmin = 8.61953
vernier = 0.03125
vernier = 0.015625
vernier = 0.0078125
vernier = 0.00390625
Gmin = 8.47038
vernier = 0.00195313
vernier = 0.000976563
vernier = 0.000488281
Gmin = 0
Gmin stepping succeeded in finding the operating point.

Early termination of direct N-R iteration.
Direct Newton iteration failed to find .op point.  (Use ".option noopiter" to skip.)
Starting Gmin stepping
Gmin = 10
vernier = 0.5
vernier = 0.25
vernier = 0.125
Gmin = 6.68666
vernier = 0.0625
vernier = 0.03125
vernier = 0.015625
vernier = 0.0078125
Gmin = 6.74993
vernier = 0.00390625
vernier = 0.00195313
vernier = 0.000976563
vernier = 0.000488281
Gmin = 6.74006
Gmin = 0
Gmin stepping failed

Starting source stepping with srcstepmethod=0
Source Step = 3.0303%
Source Step = 33.3333%
Source Step = 63.6364%
Source Step = 93.9394%
Source stepping succeeded in finding the operating point.


Date: Tue Nov 21 12:12:17 2017
Total elapsed time: 0.330 seconds.

tnom = 27
temp = 27
method = trap
totiter = 3886
traniter = 0
tranpoints = 0
accept = 0
rejected = 0
matrix size = 61
fillins = 253
solver = Normal
Matrix Compiler1: 22.15 KB object code size  4.7/2.7/[1.8]
Matrix Compiler2: 9.32 KB object code size  2.5/1.6/[1.3]

